codes/cases/casemg7_peds.m
function mpc = casemg7_peds																						
%   casemg7  Power flow data for microgrid 7																						
%   Please see CASEFORMAT for details on the case file format.																						
%																						
																						
%% MATPOWER Case Format : Version 2																						
mpc.version = '2';																						
																						
%%-----  Power Flow Data  -----%%																						
%% system MVA base																						
mpc.baseMVA = 10;																						
																						
%% bus data																						
%	bus_i	type	Pd	Qd	Gs	Bs	area	Vm	Va	baseKV	zone	Vmax	Vmin									
mpc.bus = [ %% (Pd and Qd are specified in kW & kVAr here, converted to MW & MVAr below)																						
	1	1	50	37.5	0	0	1	1	0	12.66	1	1.05	0.95;	% if there are changes in Pd, also change the values in load_profiles_pd_qd_mgN.xlsx								
	2	1	80	60	0	0	1	1	0	12.66	1	1.05	0.95;									
	3	2	48	36	0	0	1	1	0	12.66	1	1.05	0.95;									
	4	1	30	22.5	0	0	1	1	0	12.66	1	1.05	0.95;									
	5	2	12	9	0	0	1	1	0	12.66	1	1.05	0.95;									
	6	1	102	76.5	0	0	1	1	0	12.66	1	1.05	0.95;									
	7	1	42	31.5	0	0	1	1	0	12.66	1	1.05	0.95;									
	8	2	67	50.25	0	0	1	1	0	12.66	1	1.05	0.95;									
	9	1	107	80.25	0	0	1	1	0	12.66	1	1.05	0.95;									
	10	1	95	71.25	0	0	1	1	0	12.66	1	1.05	0.95;									
	11	1	42	31.5	0	0	1	1	0	12.66	1	1.05	0.95;									
	12	2	45	33.75	0	0	1	1	0	12.66	1	1.05	0.95;									
	13	1	20	15	0	0	1	1	0	12.66	1	1.05	0.95;									
	14	3	0	0	0	0	1	1	0	12.66	1	1.05	0.95;									
];																						
																						
%% generator data																						
%	bus	Pg	Qg	Qmax	Qmin	Vg	mBase	status	Pmax	Pmin	Pc1	Pc2	Qc1min	Qc1max	Qc2min	Qc2max	ramp_agc	ramp_10	ramp_30	ramp_q	apf	
mpc.gen = [																						
	1	0	0	0	0	1	100	1	0.1	0.1	0	0	0	0	0	0	0	0	0	0	0;	% wind: 100 kW
	3	0	0	0.2	-0.18	1	100	1	0.15	0	0	0	0	0	0	0	0	0	0	0	0;	% diesel: 150 kW
	5	0	0	0.2	-0.18	1	100	1	0.15	0	0	0	0	0	0	0	0	0	0	0	0;	% diesel: 150 kW
	8	0	0	0.22	-0.2	1	100	1	0.175	0	0	0	0	0	0	0	0	0	0	0	0;	% diesel: 175 kW
	11	0	0	0	0	1	100	1	0.1	0.1	0	0	0	0	0	0	0	0	0	0	0;	% solar: 100 kW
	12	0	0	0.09	-0.09	1	100	1	0.1	0	0	0	0	0	0	0	0	0	0	0	0;	% diesel: 100 kW
	14	0	0	0	0	1	100	1	0	0	0	0	0	0	0	0	0	0	0	0	0;	% dummy
];																						
																						
%% branch data																						
%	fbus	tbus	r	x	b	rateA	rateB	rateC	ratio	angle	status	angmin	angmax									
mpc.branch = [  %% (r and x specified in ohms here, converted to p.u. below)																						
	1	2	0.0005	0.0012	0	0.58	0	0	0	0	1	-360	360;									
	2	3	0.0005	0.0012	0	0.58	0	0	0	0	1	-360	360;									
	2	5	0.2842	0.1447	0	0.54	0	0	0	0	1	-360	360;									
	3	4	0.2813	0.1433	0	0.58	0	0	0	0	1	-360	360;									
	4	7	0.3089	0.1021	0	0.58	0	0	0	0	1	-360	360;									
	4	10	0.1732	0.0572	0	0.58	0	0	0	0	1	-360	360;									
	4	13	0.0044	0.0108	0	0.58	0	0	0	0	1	-360	360;									
	4	14	0.064	0.1565	0	0.58	0	0	0	0	1	-360	360;									
	5	6	0.3978	0.1315	0	0.58	0	0	0	0	1	-360	360;									
	5	8	0.0005	0.0012	0	0.54	0	0	0	0	1	-360	360;									
	6	7	0.0044	0.0108	0	0.58	0	0	0	0	1	-360	360;									
	8	9	0.064	0.1565	0	0.58	0	0	0	0	1	-360	360;									
	9	10	0.3978	0.1315	0	0.58	0	0	0	0	1	-360	360;									
	9	13	0.1053	0.123	0	0.54	0	0	0	0	1	-360	360;									
	11	12	0.1053	0.123	0	0.58	0	0	0	0	1	-360	360;									
	12	13	0.0005	0.0012	0	0.58	0	0	0	0	1	-360	360;									
];																						
																						
%%-----  OPF Data  -----%%																						
%% generator cost data																						
%	1	startup	shutdown	n	x1	y1	...	xn	yn													
%	2	startup	shutdown	n	c(n-1)	...	c0															
mpc.gencost = [																						
	2	0	0	3	0	0	0;	% wind: 100 kW														
	2	0	0	3	0.009392*10^6	15.41875*10^3	356.471708;	% diesel: 150 kW														
	2	0	0	3	0.009392*10^6	15.41875*10^3	356.471708;	% diesel: 150 kW														
	2	0	0	3	0.010346*10^6	15.057346*10^3	402.653908;	% diesel: 175 kW														
	2	0	0	3	0	0	0;	% solar: 100 kW														
	2	0	0	3	0.010567*10^6	15.682769*10^3	283.853589;	% diesel: 100 kW														
	2	0	0	3	0	0	0;	% dummy														
	2	0	0	3	0	0	0;	% start of reactive power cost														
	2	0	0	3	0	0	0;															
	2	0	0	3	0	0	0;															
	2	0	0	3	0	0	0;															
	2	0	0	3	0	0	0;															
	2	0	0	3	0	0	0;															
	2	0	0	3	0	0	0;	% dummy														
];																						
																						
																						
%% convert branch impedances from Ohms to p.u.																						
[PQ, PV, REF, NONE, BUS_I, BUS_TYPE, PD, QD, GS, BS, BUS_AREA, VM, ...																						
    VA, BASE_KV, ZONE, VMAX, VMIN, LAM_P, LAM_Q, MU_VMAX, MU_VMIN] = idx_bus;																						
[F_BUS, T_BUS, BR_R, BR_X, BR_B, RATE_A, RATE_B, RATE_C, ...																						
    TAP, SHIFT, BR_STATUS, PF, QF, PT, QT, MU_SF, MU_ST, ...																						
    ANGMIN, ANGMAX, MU_ANGMIN, MU_ANGMAX] = idx_brch;																						
Vbase = mpc.bus(1, BASE_KV) * 1e3;      %% in Volts																						
Sbase = mpc.baseMVA * 1e6;              %% in VA																						
mpc.branch(:, [BR_R BR_X]) = mpc.branch(:, [BR_R BR_X]) / (Vbase^2 / Sbase);																						
																						
%% convert loads from kW to MW																						
mpc.bus(:, [PD, QD]) = mpc.bus(:, [PD, QD]) / 1e3;																						
